# MODFLOW 6 version file automatically created using...pre-commit.py
# created on...08/09/2017 at 15:17:17
#
# major = major release number
# minor = minor release number
# micro = maintenance release number (bug fixes only)
# build = build number from initial maintenance release

major = 0
minor = 9
micro = 0
build = 7
commit = 13
version = 0.9.0
develop_version = 0.9.0.7
commit_date = 08/09/2017
